*Heading
** Job name: Job-1 Model name: Solid_Weave-e1
** Generated by: Abaqus/CAE 2022
*Preprint, echo=NO, model=NO, history=NO, contact=NO
**
** PARTS
**
*Part, name=Part-1
*Node
      1,           0.,   2.28109169, -0.00087595341
      2,           0.,   4.52090979, -0.000987994601
      3,     1.316535,           0., -0.0423183292
      4,   2.60985661,           0., -0.0422916897
      5,           0.,   2.28109097, 0.000987300766
      6,           0.,   4.52090693, 0.00087159907
      7,   2.60976505,   6.80200005, 0.0423008353
      8,   1.31675541,   6.80200005, 0.0423525833
      9,           0.,   4.54150009, 1.67734052e-05
     10,           0.,   5.66149998, 1.67734052e-05
     11,   3.92639995,   4.54150009, -1.67734052e-05
     12,   3.92639995,   5.66149998, -1.67734052e-05
     13,           0.,   1.14049995, -1.67734052e-05
     14,           0.,   2.26049995, -1.67734052e-05
     15,   3.92639995,   1.14049995, 1.67734052e-05
     16,   3.92639995,   2.26049995, 1.67734052e-05
     17,   2.60986495,           0., 0.0423183292
     18,   1.31654334,           0., 0.0422916897
     19,   3.92639995,   2.28109169, 0.00087595341
     20,   3.92639995,   4.52090979, 0.000987994601
** ... 4557 like lines cut
*Element, type=C3D4
   1,  962, 1221,  961, 1222
   2,   86, 1253,   61, 1251
   3, 1222,  961, 1225, 1221
   4, 1171, 1173, 1003, 1172
   5, 1227, 1229,  957, 1237
   6, 1145, 1019, 1144, 1113
   7, 1145, 1007, 1144, 1019
   8, 1145, 1167, 1004, 1008
   9, 1145, 1004, 1167, 1172
  10, 1171, 1145, 1007, 1144
  11, 1177,  965, 1182, 1006
  12, 1177, 1180, 1175, 1006
  13, 1177, 1176, 1178, 1003
  14, 1136,  982, 1336, 1337
  15, 1136,  982, 1132, 1336
  16,  981, 1339,  940, 1136
  17, 1097,   61, 1253, 1086
  18, 1136, 1337, 1204,  940
  19, 1203,  931,  922, 1202
  20, 1132, 1338,  985,  981
** ... 20892 like lines cut
*Nset, nset=Set-1
    1,    2,    3,    4,    5,    6,    7,    8,    9,   10,   11,   12,   13,   14,   15,   16
   17,   18,   19,   20,   21,   22,   23,   24,   25,   26,   27,   28,   29,   30,   31,   32
   33,   34,   35,   36,   37,   38,   39,   40,   41,   42,   43,   44,   45,   46,   47,   48
   49,   50,   51,   52,   53,   54,   55,   56,   57,   58,   59,   60,   61,   62,   63,   64
   65,   66,   67,   68,   69,   70,   71,   72,   73,   74,   75,   76,   77,   78,   79,   80
   81,   82,   83,   84,   85,   86,   87,   88,   89,   90,   91,   92,   93,   94,   95,   96
   97,   98,   99,  100,  101,  102,  103,  104,  105,  106,  107,  108,  109,  110,  111,  112
  113,  114,  115,  116,  117,  118,  119,  120,  121,  122,  123,  124,  125,  126,  127,  128
  129,  130,  131,  132,  133,  134,  135,  136,  137,  138,  139,  140,  141,  142,  143,  144
  145,  146,  147,  148,  149,  150,  151,  152,  153,  154,  155,  156,  157,  158,  159,  160
  161,  162,  163,  164,  165,  166,  167,  168,  169,  170,  171,  172,  173,  174,  175,  176
  177,  178,  179,  180,  181,  182,  183,  184,  185,  186,  187,  188,  189,  190,  191,  192
  193,  194,  195,  196,  197,  198,  199,  200,  201,  202,  203,  204,  205,  206,  207,  208
  209,  210,  211,  212,  213,  214,  215,  216,  217,  218,  219,  220,  221,  222,  223,  224
  225,  226,  227,  228,  229,  230,  231,  232,  233,  234,  235,  236,  237,  238,  239,  240
  241,  242,  243,  244,  245,  246,  247,  248,  249,  250,  251,  252,  253,  254,  255,  256
  257,  258,  259,  260,  261,  262,  263,  264,  265,  266,  267,  268,  269,  270,  271,  272
  273,  274,  275,  276,  277,  278,  279,  280,  281,  282,  283,  284,  285,  286,  287,  288
  289,  290,  291,  292,  293,  294,  295,  296,  297,  298,  299,  300,  301,  302,  303,  304
  305,  306,  307,  308,  309,  310,  311,  312,  313,  314,  315,  316,  317,  318,  319,  320
** ... 264 like lines cut
*Elset, elset=Set-1, generate
  7309,  20912,      1
*Nset, nset=Set-5
    1,    2,    3,    4,    5,    6,    7,    8,    9,   10,   11,   12,   13,   14,   15,   16
   17,   18,   19,   20,   21,   22,   23,   24,   61,   62,   63,   64,   65,   66,   67,   68
   69,   70,   71,   72,   73,   74,   75,   76,   77,   78,   79,   80,   81,   82,   83,   84
   85,   86,   87,   88,   89,   90,   91,   92,   93,   94,   95,   96,   97,   98,   99,  100
  101,  102,  103,  104,  105,  106,  107,  108,  109,  110,  111,  112,  113,  114,  115,  116
  117,  118,  119,  120,  121,  122,  123,  124,  125,  126,  127,  128,  129,  130,  131,  132
  133,  134,  135,  136,  137,  138,  139,  140,  141,  142,  143,  144,  145,  146,  147,  148
  149,  150,  151,  152,  153,  154,  155,  156,  157,  158,  159,  160,  161,  162,  163,  164
  165,  166,  167,  168,  169,  170,  171,  172,  173,  174,  175,  176,  177,  178,  179,  180
  181,  182,  183,  184,  185,  186,  187,  188,  189,  190,  191,  192,  193,  194,  195,  196
  197,  198,  199,  200,  201,  202,  203,  204,  205,  206,  207,  208,  209,  210,  211,  212
  213,  214,  215,  216,  217,  218,  219,  220,  221,  222,  223,  224,  225,  226,  227,  228
  229,  230,  231,  232,  233,  234,  235,  236,  237,  238,  239,  240,  241,  242,  243,  244
  245,  246,  247,  248,  249,  250,  251,  252,  253,  254,  255,  256,  257,  258,  259,  260
  261,  262,  263,  264,  265,  266,  267,  268,  269,  270,  271,  272,  273,  274,  275,  276
  277,  278,  279,  280,  281,  282,  283,  284,  285,  286,  287,  288,  289,  290,  291,  292
  293,  294,  295,  296,  297,  298,  299,  300,  301,  302,  303,  304,  305,  306,  307,  308
  309,  310,  311,  312,  313,  314,  315,  316,  317,  318,  319,  320,  321,  322,  323,  324
  325,  326,  327,  328,  329,  330,  331,  332,  333,  334,  335,  336,  337,  338,  339,  340
  341,  342,  343,  344,  345,  346,  347,  348,  349,  350,  351,  352,  353,  354,  355,  356
** ... 159 like lines cut
*Elset, elset=Set-5, generate
    1,  7308,     1
*Nset, nset=Set-6
    1,    2,    3,    4,    5,    6,    7,    8,    9,   10,   11,   12,   13,   14,   15,   16
   17,   18,   19,   20,   21,   22,   23,   24,   25,   26,   27,   28,   29,   30,   31,   32
   33,   34,   35,   36,   37,   38,   39,   40,   41,   42,   43,   44,   45,   46,   47,   48
   49,   50,   51,   52,   53,   54,   55,   56,   57,   58,   59,   60,   61,   62,   63,   64
   65,   66,   67,   68,   69,   70,   71,   72,   73,   74,   75,   76,   77,   78,   79,   80
   81,   82,   83,   84,   85,   86,   87,   88,   89,   90,   91,   92,   93,   94,   95,   96
   97,   98,   99,  100,  101,  102,  103,  104,  105,  106,  107,  108,  109,  110,  111,  112
  113,  114,  115,  116,  117,  118,  119,  120,  121,  122,  123,  124,  125,  126,  127,  128
  129,  130,  131,  132,  133,  134,  135,  136,  137,  138,  139,  140,  141,  142,  143,  144
  145,  146,  147,  148,  149,  150,  151,  152,  153,  154,  155,  156,  157,  158,  159,  160
  161,  162,  163,  164,  165,  166,  167,  168,  169,  170,  171,  172,  173,  174,  175,  176
  177,  178,  179,  180,  181,  182,  183,  184,  185,  186,  187,  188,  189,  190,  191,  192
  193,  194,  195,  196,  197,  198,  199,  200,  201,  202,  203,  204,  205,  206,  207,  208
  209,  210,  211,  212,  213,  214,  215,  216,  217,  218,  219,  220,  221,  222,  223,  224
  225,  226,  227,  228,  229,  230,  231,  232,  233,  234,  235,  236,  237,  238,  239,  240
  241,  242,  243,  244,  245,  246,  247,  248,  249,  250,  251,  252,  253,  254,  255,  256
  257,  258,  259,  260,  261,  262,  263,  264,  265,  266,  267,  268,  269,  270,  271,  272
  273,  274,  275,  276,  277,  278,  279,  280,  281,  282,  283,  284,  285,  286,  287,  288
  289,  290,  291,  292,  293,  294,  295,  296,  297,  298,  299,  300,  301,  302,  303,  304
  305,  306,  307,  308,  309,  310,  311,  312,  313,  314,  315,  316,  317,  318,  319,  320
** ... 264 like lines cut
*Elset, elset=Set-6, generate
  7309,  20912,      1
*Nset, nset=Set-7
   9,  11, 303, 304, 305, 306, 307, 308, 309, 310, 311, 312, 313, 314, 315, 316
 317, 318, 319, 320, 321, 322, 323, 324, 325, 326
*Elset, elset=Set-7
  2757,  2828,  2842,  2862,  2935,  3012,  3051,  3077,  3095,  3099,  3166,  3190,  3191,  3210,  3237,  3307
  3309,  3337,  3405,  3423,  3441,  3457,  3516,  3551,  3580,  8805,  9090, 10529, 10751, 10894, 11129, 11272
 11929, 12889, 12927, 13069, 13715, 13945, 14007, 14442, 14618, 14868, 15878, 15882, 17022, 17503, 17587, 17818
 18160, 18231, 18341, 18477, 18480, 18653, 18685, 18722, 19041, 19050, 19083, 19184, 19296, 19297, 19333, 19334
 19366, 19376, 19484, 19776, 19835, 19854, 19936, 19986, 19990, 20052, 20531
*Nset, nset=Set-9
  14,  16, 351, 352, 353, 354, 355, 356, 357, 358, 359, 360, 361, 362, 363, 364
 365, 366, 367, 368, 369, 370, 371, 372, 373, 374
*Elset, elset=Set-9
  3766,  3784,  3862,  3912,  3968,  4066,  4093,  4099,  4102,  4107,  4116,  4142,  4186,  4240,  4253,  4276
  4279,  4291,  4311,  4339,  4396,  4403,  4436,  4438,  4454,  4482,  4496,  4498,  4527,  7492,  7566,  8319
  8736,  9380,  9505,  9682, 10575, 10596, 11388, 11498, 12126, 13413, 14298, 14784, 14998, 15740, 15860, 16487
 16878, 16933, 17535, 17605, 17924, 17963, 18388, 18801, 19519, 19558, 19744, 19765, 19789, 20039, 20076, 20093
 20094, 20097, 20181, 20182, 20187, 20233, 20281, 20343, 20433, 20440, 20525, 20648, 20790, 20817, 20819
*Nset, nset=Set-11
   5,   7, 224, 225, 226, 227, 228, 229, 230, 231, 232, 233, 234, 235, 236, 237
 238, 239, 240, 241, 242, 243, 244, 245, 246, 247
*Elset, elset=Set-11
  1361,  1663,  1780,  1844,  2006,  2024,  2059,  2137,  2149,  2153,  2164,  2169,  2170,  2173,  2174,  2247
  2349,  2354,  2375,  2391,  2410,  2442,  2444,  2497,  2601,  7361,  7374,  7379,  7440,  7443,  7453,  7887
  8031,  8056,  8132,  8537,  8555,  8642,  8773,  9630,  9962,  9964, 10110, 10557, 10715, 10722, 11299, 11607
 11662, 11818, 11941, 12187, 12290, 12437, 13540, 13645, 13921, 14850, 15606, 15919, 16597, 16662, 16697, 16723
 16930, 17132, 17173, 17570, 17883, 18187, 18613, 18678, 19573, 20140, 20333
*Nset, nset=Set-13
  18,  20, 444, 445, 446, 447, 448, 449, 450, 451, 452, 453, 454, 455, 456, 457
 458, 459, 460, 461, 462, 463, 464, 465, 466, 467
*Elset, elset=Set-13
  4811,  5178,  5191,  5216,  5248,  5294,  5397,  5399,  5401,  5501,  5545,  5547,  5551,  5564,  5571,  5598
  5613,  5727,  5781,  5796,  5802,  5806,  5902,  5923,  5928,  8286,  9275,  9704, 10559, 10927, 13289, 13543
 13717, 13722, 13731, 13762, 13833, 14075, 14306, 14383, 14552, 14655, 14970, 15368, 15372, 15441, 15635, 15790
 16274, 16378, 16429, 16684, 16777, 16805, 17233, 17234, 17249, 17292, 17301, 17325, 17334, 17745, 17873, 18109
 19222, 19252, 19712, 19739, 19881, 19957, 20069, 20112, 20150, 20639, 20883
*Nset, nset=Set-15
   2,   4, 100, 101, 102, 103, 104, 105, 106, 107, 108, 109, 110, 111, 112, 113
 114, 115, 116, 117, 118, 119, 120, 121, 122, 123
*Elset, elset=Set-15
    48,   119,   536,   592,   768,   775,   814,   905,   908,   933,   939,   950,   952,   977,   986,  1037
  1092,  1095,  1097,  1105,  1115,  1149,  1185,  1252,  1326,  7316,  8160,  8165,  8236,  8402,  8426,  9219
  9442, 10777, 10962, 10987, 11239, 11293, 11585, 12257, 12478, 12661, 13053, 13466, 13632, 14338, 14355, 14862
 15428, 15755, 15916, 16040, 16067, 16139, 16282, 16359, 16565, 16603, 16628, 16782, 16885, 16972, 16994, 17032
 17067, 17755, 17781, 17990, 18104, 18534, 19116, 19221, 19500, 20284, 20578
*Nset, nset=Set-17
  21,  23, 568, 569, 570, 571, 572, 573, 574, 575, 576, 577, 578, 579, 580, 581
 582, 583, 584, 585, 586, 587, 588, 589, 590, 591
*Elset, elset=Set-17
  6102,  6122,  6172,  6440,  6457,  6605,  6666,  6673,  6704,  6719,  6720,  6722,  6747,  6757,  6773,  6938
  7007,  7124,  7125,  7130,  7134,  7146,  7217,  7226,  7287,  7399,  7403,  9183,  9365,  9444, 10560, 10569
 10672, 11894, 12125, 12406, 12559, 12563, 12577, 12930, 13319, 14215, 14238, 14257, 14264, 14280, 14354, 14366
 14777, 14962, 15208, 15267, 15286, 15300, 15304, 15313, 15515, 15630, 16862, 17298, 18013, 18305, 18412, 18471
 18474, 18596, 19394, 19415, 19456, 19520, 19585, 19943, 20641, 20681, 20865
*Elset, elset=YARN0, generate
 3583,  4686,     1
*Elset, elset=YARN1, generate
 2683,  3582,     1
*Elset, elset=YARN2, generate
 4687,  5983,     1
*Elset, elset=YARN3, generate
 5984,  7308,     1
*Elset, elset=YARN4, generate
 1341,  2682,     1
*Elset, elset=YARN5, generate
    1,  1340,     1
*Elset, elset=AllYarn_y, generate
 2683,  5983,     1
*Elset, elset=AllYarn_x
    1,    2,    3,    4,    5,    6,    7,    8,    9,   10,   11,   12,   13,   14,   15,   16
   17,   18,   19,   20,   21,   22,   23,   24,   25,   26,   27,   28,   29,   30,   31,   32
   33,   34,   35,   36,   37,   38,   39,   40,   41,   42,   43,   44,   45,   46,   47,   48
   49,   50,   51,   52,   53,   54,   55,   56,   57,   58,   59,   60,   61,   62,   63,   64
   65,   66,   67,   68,   69,   70,   71,   72,   73,   74,   75,   76,   77,   78,   79,   80
   81,   82,   83,   84,   85,   86,   87,   88,   89,   90,   91,   92,   93,   94,   95,   96
   97,   98,   99,  100,  101,  102,  103,  104,  105,  106,  107,  108,  109,  110,  111,  112
  113,  114,  115,  116,  117,  118,  119,  120,  121,  122,  123,  124,  125,  126,  127,  128
  129,  130,  131,  132,  133,  134,  135,  136,  137,  138,  139,  140,  141,  142,  143,  144
  145,  146,  147,  148,  149,  150,  151,  152,  153,  154,  155,  156,  157,  158,  159,  160
  161,  162,  163,  164,  165,  166,  167,  168,  169,  170,  171,  172,  173,  174,  175,  176
  177,  178,  179,  180,  181,  182,  183,  184,  185,  186,  187,  188,  189,  190,  191,  192
  193,  194,  195,  196,  197,  198,  199,  200,  201,  202,  203,  204,  205,  206,  207,  208
  209,  210,  211,  212,  213,  214,  215,  216,  217,  218,  219,  220,  221,  222,  223,  224
  225,  226,  227,  228,  229,  230,  231,  232,  233,  234,  235,  236,  237,  238,  239,  240
  241,  242,  243,  244,  245,  246,  247,  248,  249,  250,  251,  252,  253,  254,  255,  256
  257,  258,  259,  260,  261,  262,  263,  264,  265,  266,  267,  268,  269,  270,  271,  272
  273,  274,  275,  276,  277,  278,  279,  280,  281,  282,  283,  284,  285,  286,  287,  288
  289,  290,  291,  292,  293,  294,  295,  296,  297,  298,  299,  300,  301,  302,  303,  304
  305,  306,  307,  308,  309,  310,  311,  312,  313,  314,  315,  316,  317,  318,  319,  320
** ... 231 like lines cut
*Distribution, name=Ori-5-DiscOrient, location=ELEMENT, Table=Ori-5-DiscOrient_Table
** Description: Distribution generated from Discrete Orientation
,           1.,           0.,           0.,           0.,           1.,           0.
1, 0.499017924070358, -0.864324033260345, -0.0626504346728325, -0.0313252322375774, 0.0542568676173687, -0.998035609722137
2, 0.498604327440262, -0.86360764503479, 0.0746696963906288, 0.0373348630964756, -0.0646658465266228, -0.997208297252655
3, 0.499114245176315, -0.864490866661072, -0.0595021210610867, -0.0297510754317045, 0.0515303499996662, -0.998228251934052
4, 0.498797565698624, -0.863942325115204, -0.0693154260516167, -0.0346577279269695, 0.0600289143621922, -0.997594773769379
5, 0.499864816665649, -0.865790843963623, -0.0232712235301733, -0.0116356164216995, 0.0201534684747458, -0.99972927570343
6, 0.498755216598511, -0.863868951797485, -0.0705241337418556, -0.0352620780467987, 0.061075683683157, -0.997510075569153
7, 0.498786687850952, -0.863923490047455, -0.0696277320384979, -0.0348138771951199, 0.0602993741631508, -0.997573018074036
8, 0.498655468225479, -0.863696217536926, -0.0732907503843307, -0.0366453900933266, 0.0634716525673866, -0.997310698032379
9, 0.498670756816864, -0.863722681999207, -0.0728741362690926, -0.0364370830357075, 0.0631108507514, -0.997341156005859
10, 0.498780280351639, -0.863912403583527, -0.0698111727833748, -0.0349055975675583, 0.0604582391679287, -0.997560203075409
11, 0.499198466539383, -0.864636719226837, -0.0566058084368706, -0.0283029191195965, 0.0490220710635185, -0.998396694660187
12, 0.499186933040619, -0.864616751670837, -0.0570108741521835, -0.028505451977253, 0.0493728667497635, -0.998373627662659
13, 0.498971104621887, -0.864242911338806, -0.0641248598694801, -0.0320624448359013, 0.0555337630212307, -0.997941970825195
14, 0.499060690402985, -0.864398062229156, -0.061273455619812, -0.0306367371231318, 0.0530643612146378, -0.998121023178101
15, 0.499011904001236, -0.864313542842865, -0.0628425925970078, -0.0314213074743748, 0.054423276335001, -0.998023450374603
16, 0.498908907175064, -0.864135205745697, -0.0660325288772583, -0.0330162756145, 0.0571858361363411, -0.99781745672226
17, 0.498616188764572, -0.863628149032593, 0.0743526592850685, 0.0371763445436954, -0.0643912851810455, -0.997232019901276
18, 0.499007433652878, -0.864305853843689, -0.0629841759800911, -0.0314920991659164, 0.0545458868145943, -0.998014509677887
19, 0.499791115522385, -0.865663230419159, -0.0289145857095718, -0.0144572984427214, 0.0250407624989748, -0.999581873416901
20, 0.498851001262665, -0.86403489112854, -0.0677601620554924, -0.0338800922036171, 0.0586820133030415, -0.997701644897461
** ... 1320 like lines cut
*Orientation, name=Ori-5, system=RECTANGULAR
Ori-5-DiscOrient
1, 0.
** Region: (Section-2:Set-5), (Material Orientation:Picked)
*Elset, elset=_I1, internal, generate
    1,  1340,     1
** Section: Section-2
*Solid Section, elset=_I1, orientation=Ori-5, material=MAT1
,
*Distribution, name=Ori-3-DiscOrient, location=ELEMENT, Table=Ori-3-DiscOrient_Table
** Description: Distribution generated from Discrete Orientation
,           1.,           0.,           0.,           0.,           1.,           0.
1341, 0.499404162168503, 0.864218890666962, 0.0610015019774437, 0.0305212438106537, 0.0528170131146908, -0.998137652873993
1342, 0.499704748392105, 0.864739060401917, 0.0502145253121853, 0.0251241307705641, 0.0434773080050945, -0.998738467693329
1343, 0.499268680810928, 0.863984405994415, 0.0652817562222481, 0.0326628088951111, 0.0565229915082455, -0.997866868972778
1344, 0.499625623226166, 0.864602088928223, 0.053267490118742, 0.0266516394913197, 0.0461206622421741, -0.998580276966095
1345, 0.500055074691772, 0.865345299243927, 0.0335035026073456, 0.0167630054056644, 0.0290083829313517, -0.999438583850861
1346, 0.499970704317093, 0.865199267864227, 0.0382032953202724, 0.0191144812852144, 0.0330776087939739, -0.999269962310791
1347, 0.500097751617432, 0.865419149398804, 0.0308528151363134, 0.0154367722570896, 0.0267133340239525, -0.999523937702179
1348, 0.499901384115219, 0.865079343318939, 0.0416688360273838, 0.0208484157919884, 0.0360781848430634, -0.999131500720978
1349, 0.498977392911911, 0.863480389118195, -0.0736428797245026, -0.0368461832404137, -0.0637623146176338, -0.997284710407257
1350, 0.500256061553955, 0.865693092346191, 0.0178691688925028, 0.00894058775156736, 0.0154716866090894, -0.999840319156647
1351, 0.50025737285614, 0.865695416927338, -0.0177228916436434, -0.00886739976704121, -0.0153450351208448, -0.999843001365662
1352, 0.499697744846344, 0.864726960659027, 0.0504920817911625, 0.0252630021423101, 0.0437176264822483, -0.998724460601807
1353, 0.499764978885651, 0.864843249320984, 0.0477607324719429, 0.0238964129239321, 0.041352741420269, -0.99885880947113
1354, 0.499644309282303, 0.864634454250336, 0.052562665194273, 0.0262989904731512, 0.0455104038119316, -0.998617649078369
1355, 0.500191271305084, 0.865581035614014, 0.0240491908043623, 0.0120326736941934, 0.0208225417882204, -0.99971079826355
1356, 0.500334560871124, 0.865828990936279, -0.00237258453853428, -0.00118708924856037, -0.00205425801686943, -0.99999725818634
1357, 0.500298738479614, 0.865766942501068, 0.0121980542317033, 0.00610312493517995, 0.0105614578351378, -0.99992561340332
1358, 0.499086797237396, 0.863669753074646, -0.070619098842144, -0.0353332757949829, -0.061144232749939, -0.997503399848938
1359, 0.499307245016098, 0.864051163196564, -0.0640936493873596, -0.0320683531463146, -0.0554942861199379, -0.997943878173828
1360, 0.499283611774445, 0.864010274410248, -0.0648249611258507, -0.0324342586100101, -0.0561274811625481, -0.997896730899811
** ... 1322 like lines cut
*Orientation, name=Ori-3, system=RECTANGULAR
Ori-3-DiscOrient
1, 0.
** Region: (Section-2:Set-5), (Material Orientation:Picked)
*Elset, elset=_I2, internal, generate
 1341,  2682,     1
** Section: Section-2
*Solid Section, elset=_I2, orientation=Ori-3, material=MAT1
,
*Distribution, name=Ori-1-DiscOrient, location=ELEMENT, Table=Ori-1-DiscOrient_Table
** Description: Distribution generated from Discrete Orientation
,           1.,           0.,           0.,           0.,           1.,           0.
2683, 0.997714817523956,           0., 0.0675656273961067, 0.0675656273961067,           0., -0.997714817523956
2684, 0.998079836368561,           0., 0.0619409531354904, 0.0619409531354904,           0., -0.998079836368561
2685, 0.998646676540375,           0., 0.0520077422261238, 0.0520077422261238,           0., -0.998646676540375
2686, 0.997714817523956,           0., 0.0675656720995903, 0.0675656720995903,           0., -0.997714817523956
2687, 0.998987376689911,           0., 0.0449914149940014, 0.0449914149940014,           0., -0.998987376689911
2688, 0.998988032341003,           0., 0.0449766591191292, 0.0449766591191292,           0., -0.998988032341003
2689, 0.99899035692215,           0., 0.0449250154197216, 0.0449250154197216,           0., -0.99899035692215
2690, 0.999336719512939,           0., 0.0364153832197189, 0.0364153832197189,           0., -0.999336719512939
2691, 0.998481512069702,           0., 0.0550881810486317, 0.0550881810486317,           0., -0.998481512069702
2692, 0.998332858085632,           0., 0.0577187202870846, 0.0577187202870846,           0., -0.998332858085632
2693, 0.999656081199646,           0., 0.0262245386838913, 0.0262245386838913,           0., -0.999656081199646
2694, 0.999161958694458,           0., 0.0409308522939682, 0.0409308522939682,           0., -0.999161958694458
2695, 0.997971951961517,           0., 0.0636555925011635, 0.0636555925011635,           0., -0.997971951961517
2696, 0.999166190624237,           0., 0.0408275984227657, 0.0408275984227657,           0., -0.999166190624237
2697, 0.999657511711121,           0., 0.0261705033481121, 0.0261705033481121,           0., -0.999657511711121
2698, 0.998987674713135,           0., 0.044984120875597, 0.044984120875597,           0., -0.998987674713135
2699, 0.999788284301758,           0., 0.0205772947520018, 0.0205772947520018,           0., -0.999788284301758
2700, 0.998985052108765,           0., 0.0450432077050209, 0.0450432077050209,           0., -0.998985052108765
2701, 0.998644173145294,           0., 0.0520558170974255, 0.0520558170974255,           0., -0.998644173145294
2702, 0.998984396457672,           0., 0.0450580418109894, 0.0450580418109894,           0., -0.998984396457672
** ... 880 like lines cut
*Orientation, name=Ori-1, system=RECTANGULAR
Ori-1-DiscOrient
1, 0.
** Region: (Section-2:Set-5), (Material Orientation:Picked)
*Elset, elset=_I3, internal, generate
 2683,  3582,     1
** Section: Section-2
*Solid Section, elset=_I3, orientation=Ori-1, material=MAT1
,
*Distribution, name=Ori-2-DiscOrient, location=ELEMENT, Table=Ori-2-DiscOrient_Table
** Description: Distribution generated from Discrete Orientation
,           1.,           0.,           0.,           0.,           1.,           0.
3583, 0.999657034873962,           0., -0.0261884555220604, -0.0261884555220604,           0., -0.999657034873962
3584, 0.99933648109436,           0., -0.0364224947988987, -0.0364224947988987,           0., -0.99933648109436
3585, 0.999788701534271,           0., -0.0205571018159389, -0.0205571018159389,           0., -0.999788701534271
3586, 0.998340129852295,           0., -0.0575933679938316, -0.0575933679938316,           0., -0.998340129852295
3587, 0.997716784477234,           0., -0.0675368383526802, -0.0675368383526802,           0., -0.997716784477234
3588, 0.997751116752625,           0., -0.0670273378491402, -0.0670273378491402,           0., -0.997751116752625
3589, 0.998072922229767,           0., -0.0620521046221256, -0.0620521046221256,           0., -0.998072922229767
3590, 0.997965574264526,           0., -0.063754715025425, -0.063754715025425,           0., -0.997965574264526
3591, 0.997798562049866,           0., -0.0663172602653503, -0.0663172602653503,           0., -0.997798562049866
3592, 0.998489677906036,           0., -0.0549398474395275, -0.0549398474395275,           0., -0.998489677906036
3593, 0.999086678028107,           0., -0.0427296012639999, -0.0427296012639999,           0., -0.999086678028107
3594, 0.999162912368774,           0., -0.0409087166190147, -0.0409087166190147,           0., -0.999162912368774
3595, 0.997774839401245,           0., 0.066673532128334, 0.066673532128334,           0., -0.997774839401245
3596, 0.999616861343384,           0., 0.0276781134307384, 0.0276781134307384,           0., -0.999616861343384
3597, 0.999685108661652,           0., 0.0250930320471525, 0.0250930320471525,           0., -0.999685108661652
3598, 0.999995946884155,           0., -0.00284149614162743, -0.00284149614162743,           0., -0.999995946884155
3599, 0.999995827674866,           0., 0.00288248644210398, 0.00288248644210398,           0., -0.999995827674866
3600, 0.999336719512939,           0., -0.0364153832197189, -0.0364153832197189,           0., -0.999336719512939
3601, 0.998641669750214,           0., -0.0521038919687271, -0.0521038919687271,           0., -0.998641669750214
3602, 0.999255955219269,           0., -0.0385682731866837, -0.0385682731866837,           0., -0.999255955219269
** ... 1084 like lines cut
*Orientation, name=Ori-2, system=RECTANGULAR
Ori-2-DiscOrient
1, 0.
** Region: (Section-2:Set-5), (Material Orientation:Picked)
*Elset, elset=_I4, internal, generate
 3583,  4686,     1
** Section: Section-2
*Solid Section, elset=_I4, orientation=Ori-2, material=MAT1
,
*Distribution, name=Ori-4-DiscOrient, location=ELEMENT, Table=Ori-4-DiscOrient_Table
** Description: Distribution generated from Discrete Orientation
,           1.,           0.,           0.,           0.,           1.,           0.
4687, 0.499444335699081, 0.86428838968277, 0.0596744790673256, 0.029857287183404, 0.0516680330038071, -0.998217940330505
4688, 0.500015914440155, 0.865277528762817, 0.0357613414525986, 0.0178926847875118, 0.0309632904827595, -0.999360382556915
4689, 0.499535530805588, 0.864446222782135, 0.056542593985796, 0.0282902922481298, 0.0489563494920731, -0.998400211334229
4690, 0.499652415513992, 0.864648461341858, 0.0522542409598827, 0.0261446740478277, 0.0452433601021767, -0.998633861541748
4691, 0.498939275741577, 0.863414406776428, 0.0746675953269005, 0.0373588800430298, 0.0646495446562767, -0.997208535671234
4692, 0.500175952911377, 0.865554511547089, 0.0252858679741621, 0.0126514285802841, 0.021893298253417, -0.999680280685425
4693, 0.500280380249023, 0.865735173225403, 0.0149059845134616, 0.0074579999782145, 0.0129060689359903, -0.999888896942139
4694, 0.500221312046051, 0.865632891654968, 0.0214079730212688, 0.0107111781835556, 0.0185356941074133, -0.999770820140839
4695, 0.500324726104736, 0.865811884403229, 0.00670698983594775, 0.00335574825294316, 0.00580712221562862, -0.99997752904892
4696, 0.499494463205338, 0.864375174045563, 0.057973675429821, 0.029006315395236, 0.0501954257488251, -0.998318135738373
4697, 0.498917013406754, 0.863375902175903, 0.0752588659524918, 0.0376547165215015, 0.0651614889502525, -0.997164070606232
4698, 0.499616533517838, 0.864586412906647, 0.0536070019006729, 0.0268215108662844, 0.0464146248996258, -0.998562157154083
4699, 0.499739944934845, 0.864799916744232, 0.0487966649234295, 0.0244147256016731, 0.0422496870160103, -0.998808801174164
4700, 0.499940395355225, 0.865146815776825, 0.0397565476596355, 0.0198916289955378, 0.0344224646687508, -0.999209403991699
4701, 0.499897986650467, 0.865073442459106, 0.0418319068849087, 0.0209300071001053, 0.0362193733453751, -0.999124705791473
4702, 0.499530255794525, 0.864437103271484, 0.0567279160022736, 0.0283830147236586, 0.0491168051958084, -0.998389720916748
4703, 0.500043869018555, 0.86532586812973, 0.0341662392020226, 0.0170945972204208, 0.0295822024345398, -0.999416172504425
4704, 0.500177800655365, 0.865557610988617, 0.0251428559422493, 0.0125798741355538, 0.0217694733291864, -0.999683916568756
4705, 0.498918086290359, 0.863377749919891, 0.0752303153276443, 0.0376404300332069, 0.0651367679238319, -0.997166216373444
4706, 0.498931676149368, 0.863401293754578, 0.0748693645000458, 0.0374598354101181, 0.0648242458701134, -0.997193336486816
** ... 1277 like lines cut
*Orientation, name=Ori-4, system=RECTANGULAR
Ori-4-DiscOrient
1, 0.
** Region: (Section-2:Set-5), (Material Orientation:Picked)
*Elset, elset=_I5, internal, generate
 4687,  5983,     1
** Section: Section-2
*Solid Section, elset=_I5, orientation=Ori-4, material=MAT1
,
*Distribution, name=Ori-6-DiscOrient, location=ELEMENT, Table=Ori-6-DiscOrient_Table
** Description: Distribution generated from Discrete Orientation
,           1.,           0.,           0.,           0.,           1.,           0.
5984, 0.499794155359268, -0.865668475627899, 0.028702937066555, 0.014351474121213, -0.0248574707657099, -0.999588012695312
5985, 0.499684482812881, -0.865478515625, -0.035530112683773, -0.017765061929822, 0.0307699777185917, -0.999368607997894
5986, 0.499604910612106, -0.865340709686279, -0.0397541075944901, -0.0198770612478256, 0.0344280637800694, -0.999209463596344
5987, 0.498655021190643, -0.863695442676544, -0.0733044818043709, -0.0366522520780563, 0.0634835362434387, -0.997309684753418
5988, 0.498693764209747, -0.863762557506561, -0.072242371737957, -0.0361211970448494, 0.0625637248158455, -0.997387170791626
5989, 0.498618304729462, -0.863631844520569, -0.0742953643202782, -0.03714769333601, 0.06434166431427, -0.997236251831055
5990, 0.498722672462463, -0.863812565803528, -0.0714401006698608, -0.035720057785511, 0.06186892837286, -0.997444868087769
5991, 0.498648762702942, -0.863684594631195, -0.0734746605157852, -0.0367373414337635, 0.0636309161782265, -0.997297167778015
5992, 0.498721092939377, -0.863809883594513, -0.0714835897088051, -0.0357418097555637, 0.0619066022336483, -0.997441828250885
5993, 0.498579829931259, -0.86356520652771, -0.0753222852945328, -0.037661150097847, 0.0652309954166412, -0.997159242630005
5994, 0.498822391033173, -0.863985359668732, 0.0685981586575508, 0.0342990905046463, -0.0594077371060848, -0.997644424438477
5995, 0.498592704534531, -0.863587498664856, -0.0749794691801071, -0.0374897494912148, 0.0649341195821762, -0.997185051441193
5996, 0.498698979616165, -0.863771557807922, -0.0720983669161797, -0.036049198359251, 0.0624390132725239, -0.997397601604462
5997, 0.498719990253448, -0.86380797624588, -0.0715142115950584, -0.0357571132481098, 0.0619331076741219, -0.997439563274384
5998, 0.49859681725502, -0.863594651222229, -0.074869692325592, -0.0374348647892475, 0.0648390576243401, -0.997193396091461
5999, 0.498583614826202, -0.863571763038635, -0.0752206742763519, -0.0376103557646275, 0.0651430115103722, -0.997166991233826
6000, 0.498578161001205, -0.863562285900116, -0.0753671154379845, -0.0376835651695728, 0.0652698203921318, -0.997155845165253
6001, 0.498664021492004, -0.863710999488831, -0.0730593353509903, -0.0365296825766563, 0.0632712319493294, -0.99732768535614
6002, 0.498586118221283, -0.863576114177704, -0.0751557052135468, -0.0375778637826443, 0.0650867447257042, -0.997171878814697
6003, 0.498695701360703, -0.863765895366669, -0.0721875578165054, -0.0360937938094139, 0.0625162571668625, -0.997391164302826
** ... 1305 like lines cut
*Orientation, name=Ori-6, system=RECTANGULAR
Ori-6-DiscOrient
1, 0.
** Region: (Section-2:Set-5), (Material Orientation:Picked)
*Elset, elset=_I6, internal, generate
 5984,  7308,     1
** Section: Section-2
*Solid Section, elset=_I6, orientation=Ori-6, material=MAT1
,
** Section: Section-1
*Solid Section, elset=Set-6, material=MAT0
,
*End Part
**  
*Part, name=RefPoint-0
*Node
      1,           0.,           0.,           0.
*Nset, nset=RefPoint-0-RefPt_, internal
1, 
*End Part
**  
*Part, name=RefPoint-1
*Node
      1,           0.,           0.,           0.
*Nset, nset=RefPoint-1-RefPt_, internal
1, 
*End Part
**  
**
** ASSEMBLY
**
*Assembly, name=Assembly
**  
*Instance, name=Part-1-1, part=Part-1
*End Instance
**  
*Instance, name=RefPoint-0, part=RefPoint-0
*End Instance
**  
*Instance, name=RefPoint-1, part=RefPoint-1
*End Instance
**  
*Node
      1,   1.30498743,           0.,           0.
*Node
      2,   1.40839839, -1.88217497e-16,           0.
*Node
      3,    1.4695406,           0.,           0.
*Node
      4,    1.5004971, 2.38524478e-16,           0.
*Node
      5,    1.5927937, 6.24500451e-17,           0.
*Node
      6,   1.63409376,           0.,           0.
*Node
      7,   1.68525088, -7.2858386e-17,           0.
*Node
      8,   1.77782977, 1.2490009e-16,           0.
*Node
      9,   1.79864681,           0.,           0.
*Node
     10,   1.87049174, -1.04083409e-17,           0.
*Node
     11,   1.96319437, 2.11636264e-16,           0.
*Node
     12,   2.04547668,           0.,           0.
*Node
     13,   2.12775326,           0.,           0.
*Node
     14,    2.1482563, -1.40512602e-16,           0.
*Node
     15,   2.24073911, -6.9388939e-18,           0.
*Node
     16,   2.29230618,           0.,           0.
*Node
     17,   2.33316326, -2.42861287e-16,           0.
*Node
     18,   2.42550635, 1.14491749e-16,           0.
*Node
     19,   2.45685935,           0.,           0.
*Node
     20,   2.51774526, 1.00613962e-16,           0.
*Node
     21,   2.60985661, -1.16226473e-16,           0.
*Node
     22,   1.30521238,   6.80200005,           0.
*Node
     23,   1.40848136,   6.80200005,           0.
*Node
     24,   1.46970928,   6.80200005,           0.
*Node
     25,   1.50055945,   6.80200005,           0.
*Node
     26,    1.5928334,   6.80200005,           0.
*Node
     27,   1.63420618,   6.80200005,           0.
*Node
     28,   1.68526673,   6.80200005,           0.
*Node
     29,    1.7778219,   6.80200005,           0.
*Node
     30,   1.79870307,   6.80200005,           0.
*Node
     31,   1.87046063,   6.80200005,           0.
*Node
     32,   1.96314001,   6.80200005,           0.
*Node
     33,   2.04544854,   6.80200005,           0.
*Node
     34,   2.12769699,   6.80200005,           0.
*Node
     35,   2.14815569,   6.80200005,           0.
*Node
     36,   2.24061537,   6.80200005,           0.
*Node
     37,   2.29219389,   6.80200005,           0.
*Node
     38,   2.33301616,   6.80200005,           0.
*Node
     39,    2.4253366,   6.80200005,           0.
*Node
     40,   2.45669079,   6.80200005,           0.
*Node
     41,   2.51755404,   6.80200005,           0.
*Node
     42,   2.60964465,   6.80200005,           0.
*Node
     43,           0.,   1.13049996,           0.
*Node
     44,           0.,   1.29267859,           0.
*Node
     45,           0.,   1.45485711,           0.
*Node
     46,           0.,   1.61703575,           0.
*Node
     47,           0.,   1.77921426,           0.
*Node
     48, 8.32667268e-17,   1.94117665,           0.
*Node
     49, -7.2858386e-17,    2.1011765,           0.
*Node
     50, -1.12757026e-16,   2.26049995,           0.
*Node
     51,           0.,   2.42792869,           0.
*Node
     52,           0.,    2.5901072,           0.
*Node
     53,           0.,   2.75228572,           0.
*Node
     54,           0.,   2.91446424,           0.
*Node
     55,           0.,   3.07664275,           0.
*Node
     56,           0.,   3.23882151,           0.
*Node
     57, 9.54097912e-18,   3.40099454,           0.
*Node
     58, -5.89805982e-17,   3.56099153,           0.
*Node
     59, 7.54604712e-17,   3.72097754,           0.
*Node
     60, -9.88792381e-17,   3.88095832,           0.
*Node
     61, 2.16840434e-17,   4.04093885,           0.
*Node
     62, -1.04083409e-17,   4.20092344,           0.
*Node
     63, 9.36750677e-17,   4.36091423,           0.
*Node
     64, -1.90819582e-17,   4.52090693,           0.
*Node
     65,           0.,   4.69842863,           0.
*Node
     66,           0.,   4.86060715,           0.
*Node
     67, 1.90819582e-17,   5.02122927,           0.
*Node
     68, 6.41847686e-17,    5.1817708,           0.
*Node
     69, -9.02056208e-17,   5.34217644,           0.
*Node
     70, -4.16333634e-17,   5.50217628,           0.
*Node
     71, 1.73472348e-18,   5.66149998,           0.
*Node
     72,   3.92639995,   1.13049996,           0.
*Node
     73,   3.92639995,   1.29267859,           0.
*Node
     74,   3.92639995,   1.45485711,           0.
*Node
     75,   3.92639995,   1.61703575,           0.
*Node
     76,   3.92639995,   1.77921426,           0.
*Node
     77,   3.92639995,   1.94117665,           0.
*Node
     78,   3.92639995,    2.1011765,           0.
*Node
     79,   3.92639995,   2.26049995,           0.
*Node
     80,   3.92639995,   2.42792869,           0.
*Node
     81,   3.92639995,    2.5901072,           0.
*Node
     82,   3.92639995,   2.75228572,           0.
*Node
     83,   3.92639995,   2.91446424,           0.
*Node
     84,   3.92639995,   3.07664275,           0.
*Node
     85,   3.92639995,   3.23882151,           0.
*Node
     86,   3.92639995,   3.40099406,           0.
*Node
     87,   3.92639995,   3.56099176,           0.
*Node
     88,   3.92639995,   3.72097778,           0.
*Node
     89,   3.92639995,    3.8809588,           0.
*Node
     90,   3.92639995,   4.04093933,           0.
*Node
     91,   3.92639995,   4.20092392,           0.
*Node
     92,   3.92639995,   4.36091471,           0.
*Node
     93,   3.92639995,   4.52090693,           0.
*Node
     94,   3.92639995,   4.69842863,           0.
*Node
     95,   3.92639995,   4.86060715,           0.
*Node
     96,   3.92639995,   5.02122927,           0.
*Node
     97,   3.92639995,    5.1817708,           0.
*Node
     98,   3.92639995,   5.34217644,           0.
*Node
     99,   3.92639995,   5.50217628,           0.
*Node
    100,   3.92639995,   5.66149998,           0.
*Nset, nset=ALLRFPOINT, generate
   1,  100,    1
*Nset, nset=Point-1-0
 8,
*Nset, nset=Point-1-1
 10,
*Nset, nset=Point-1-2
 11,
*Nset, nset=Point-1-3
 12,
*Nset, nset=Point-1-4
 13,
*Nset, nset=Point-1-5
 14,
*Nset, nset=Point-1-6
 15,
*Nset, nset=Point-1-7
 16,
*Nset, nset=Point-1-8
 17,
*Nset, nset=Point-1-9
 18,
*Nset, nset=Point-1-10
 19,
*Nset, nset=Point-1-11
 20,
*Nset, nset=Point-1-12
 21,
*Nset, nset=Point-1-13
 43,
*Nset, nset=Point-1-14
 44,
*Nset, nset=Point-1-15
 45,
*Nset, nset=Point-1-16
 46,
*Nset, nset=Point-1-17
 47,
*Nset, nset=Point-1-18
 48,
*Nset, nset=Point-1-19
** ... 105 like lines cut
*Nset, nset=RF1001
 1,
*Nset, nset=RF1002
 2,
*Nset, nset=RF1003
 3,
*Nset, nset=RF1004
 4,
*Nset, nset=RF1005
 5,
*Nset, nset=RF1006
 6,
*Nset, nset=RF1007
 7,
*Nset, nset=RF1008
 8,
*Nset, nset=RF1009
 9,
*Nset, nset=RF1010
 10,
*Nset, nset=RF1011
 11,
*Nset, nset=RF1012
 12,
*Nset, nset=RF1013
 13,
*Nset, nset=RF1014
 14,
*Nset, nset=RF1015
 15,
*Nset, nset=RF1016
 16,
*Nset, nset=RF1017
 17,
*Nset, nset=RF1018
 18,
*Nset, nset=RF1019
 19,
*Nset, nset=RF1020
 20,
** ... 160 like lines cut
*Nset, nset=RefPoint-0, instance=RefPoint-0
 1,
*Nset, nset=RefPoint-1, instance=RefPoint-1
 1,
*Nset, nset=_PickedSet66, internal, instance=Part-1-1
 47,
*Nset, nset=_PickedSet70, internal, instance=Part-1-1
 3,
*Nset, nset=_PickedSet74, internal, instance=Part-1-1
 87,
*Nset, nset=_PickedSet75, internal, instance=Part-1-1
  87, 160
*Nset, nset=_PickedSet76, internal, instance=Part-1-1
  87, 160, 417
*Nset, nset=_PickedSet80, internal, instance=Part-1-1
 771,
*Nset, nset=_PickedSet84, internal, instance=Part-1-1
 88,
*Nset, nset=_PickedSet85, internal, instance=Part-1-1
  88, 159
*Nset, nset=_PickedSet86, internal, instance=Part-1-1
  88, 159, 416
*Nset, nset=_PickedSet90, internal, instance=Part-1-1
 89,
*Nset, nset=_PickedSet91, internal, instance=Part-1-1
  89, 158
*Nset, nset=_PickedSet92, internal, instance=Part-1-1
  89, 158, 415
*Nset, nset=_PickedSet96, internal, instance=Part-1-1
 772,
*Nset, nset=_PickedSet100, internal, instance=Part-1-1
 90,
*Nset, nset=_PickedSet101, internal, instance=Part-1-1
  90, 157
*Nset, nset=_PickedSet102, internal, instance=Part-1-1
  90, 157, 414
*Nset, nset=_PickedSet106, internal, instance=Part-1-1
 91,
*Nset, nset=_PickedSet107, internal, instance=Part-1-1
  91, 156
*Nset, nset=_PickedSet108, internal, instance=Part-1-1
  91, 156, 413
*Nset, nset=_PickedSet112, internal, instance=Part-1-1
** ... 2033 like lines cut
*Surface, type=NODE, name=_PickedSet1988_CNS_, internal
_PickedSet1988, 1.
*Surface, type=NODE, name=_PickedSet1994_CNS_, internal
_PickedSet1994, 1.
*Surface, type=NODE, name=_PickedSet1998_CNS_, internal
_PickedSet1998, 1.
*Surface, type=NODE, name=_PickedSet2004_CNS_, internal
_PickedSet2004, 1.
*Surface, type=NODE, name=_PickedSet2010_CNS_, internal
_PickedSet2010, 1.
*Surface, type=NODE, name=_PickedSet2014_CNS_, internal
_PickedSet2014, 1.
*Surface, type=NODE, name=_PickedSet2020_CNS_, internal
_PickedSet2020, 1.
*Surface, type=NODE, name=_PickedSet2026_CNS_, internal
_PickedSet2026, 1.
*Surface, type=NODE, name=_PickedSet2030_CNS_, internal
_PickedSet2030, 1.
*Surface, type=NODE, name=_PickedSet2038_CNS_, internal
_PickedSet2038, 1.
*Surface, type=NODE, name=_PickedSet2046_CNS_, internal
_PickedSet2046, 1.
*Surface, type=NODE, name=_PickedSet2054_CNS_, internal
_PickedSet2054, 1.
*Surface, type=NODE, name=_PickedSet2058_CNS_, internal
_PickedSet2058, 1.
*Surface, type=NODE, name=_PickedSet2064_CNS_, internal
_PickedSet2064, 1.
*Surface, type=NODE, name=_PickedSet2070_CNS_, internal
_PickedSet2070, 1.
*Surface, type=NODE, name=_PickedSet2074_CNS_, internal
_PickedSet2074, 1.
*Surface, type=NODE, name=_PickedSet2080_CNS_, internal
_PickedSet2080, 1.
*Surface, type=NODE, name=_PickedSet2086_CNS_, internal
_PickedSet2086, 1.
*Surface, type=NODE, name=_PickedSet2090_CNS_, internal
_PickedSet2090, 1.
*Surface, type=NODE, name=_PickedSet2096_CNS_, internal
_PickedSet2096, 1.
** ... 160 like lines cut
** Constraint: PerConst1-0
*Equation
3
Point-1-0, 1, -1.
Point-2-0, 1, 1.
RefPoint-1, 1, -1.
** Constraint: PerConst1-1
*Equation
3
Point-1-1, 1, -1.
Point-2-1, 1, 1.
RefPoint-1, 1, -1.
** Constraint: PerConst1-2
*Equation
3
Point-1-2, 1, -1.
Point-2-2, 1, 1.
RefPoint-1, 1, -1.
** Constraint: PerConst1-3
*Equation
3
Point-1-3, 1, -1.
Point-2-3, 1, 1.
RefPoint-1, 1, -1.
** Constraint: PerConst1-4
*Equation
3
Point-1-4, 1, -1.
Point-2-4, 1, 1.
RefPoint-1, 1, -1.
** Constraint: PerConst1-5
*Equation
3
Point-1-5, 1, -1.
Point-2-5, 1, 1.
RefPoint-1, 1, -1.
** Constraint: PerConst1-6
*Equation
3
Point-1-6, 1, -1.
Point-2-6, 1, 1.
RefPoint-1, 1, -1.
** Constraint: PerConst1-7
*Equation
3
Point-1-7, 1, -1.
Point-2-7, 1, 1.
RefPoint-1, 1, -1.
** Constraint: PerConst1-8
*Equation
3
Point-1-8, 1, -1.
Point-2-8, 1, 1.
RefPoint-1, 1, -1.
** Constraint: PerConst1-9
*Equation
3
Point-1-9, 1, -1.
Point-2-9, 1, 1.
RefPoint-1, 1, -1.
** Constraint: PerConst1-10
*Equation
3
Point-1-10, 1, -1.
Point-2-10, 1, 1.
RefPoint-1, 1, -1.
** Constraint: PerConst1-11
*Equation
3
Point-1-11, 1, -1.
Point-2-11, 1, 1.
RefPoint-1, 1, -1.
** Constraint: PerConst1-12
*Equation
3
Point-1-12, 1, -1.
Point-2-12, 1, 1.
RefPoint-1, 1, -1.
** Constraint: PerConst1-13
*Equation
3
Point-1-13, 1, -1.
Point-2-13, 1, 1.
RefPoint-0, 1, -1.
** Constraint: PerConst1-14
*Equation
3
Point-1-14, 1, -1.
Point-2-14, 1, 1.
RefPoint-0, 1, -1.
** Constraint: PerConst1-15
*Equation
3
Point-1-15, 1, -1.
Point-2-15, 1, 1.
RefPoint-0, 1, -1.
** Constraint: PerConst1-16
*Equation
3
Point-1-16, 1, -1.
Point-2-16, 1, 1.
RefPoint-0, 1, -1.
** Constraint: PerConst1-17
*Equation
3
Point-1-17, 1, -1.
Point-2-17, 1, 1.
RefPoint-0, 1, -1.
** Constraint: PerConst1-18
*Equation
3
Point-1-18, 1, -1.
Point-2-18, 1, 1.
RefPoint-0, 1, -1.
** Constraint: PerConst1-19
*Equation
3
Point-1-19, 1, -1.
Point-2-19, 1, 1.
RefPoint-0, 1, -1.
** Constraint: PerConst1-20
*Equation
3
Point-1-20, 1, -1.
Point-2-20, 1, 1.
RefPoint-0, 1, -1.
** Constraint: PerConst1-21
*Equation
3
Point-1-21, 1, -1.
Point-2-21, 1, 1.
RefPoint-0, 1, -1.
** Constraint: PerConst1-22
*Equation
3
Point-1-22, 1, -1.
Point-2-22, 1, 1.
RefPoint-0, 1, -1.
** Constraint: PerConst1-23
*Equation
3
Point-1-23, 1, -1.
Point-2-23, 1, 1.
RefPoint-0, 1, -1.
** Constraint: PerConst1-24
*Equation
3
Point-1-24, 1, -1.
Point-2-24, 1, 1.
RefPoint-0, 1, -1.
** Constraint: PerConst1-25
*Equation
3
Point-1-25, 1, -1.
Point-2-25, 1, 1.
RefPoint-0, 1, -1.
** Constraint: PerConst1-26
*Equation
3
Point-1-26, 1, -1.
Point-2-26, 1, 1.
RefPoint-0, 1, -1.
** Constraint: PerConst1-27
*Equation
3
Point-1-27, 1, -1.
Point-2-27, 1, 1.
RefPoint-0, 1, -1.
** Constraint: PerConst1-28
*Equation
3
Point-1-28, 1, -1.
Point-2-28, 1, 1.
RefPoint-0, 1, -1.
** Constraint: PerConst1-29
*Equation
3
Point-1-29, 1, -1.
Point-2-29, 1, 1.
RefPoint-0, 1, -1.
** Constraint: PerConst1-30
*Equation
3
Point-1-30, 1, -1.
Point-2-30, 1, 1.
RefPoint-0, 1, -1.
** Constraint: PerConst1-31
*Equation
3
Point-1-31, 1, -1.
Point-2-31, 1, 1.
RefPoint-0, 1, -1.
** Constraint: PerConst1-32
*Equation
3
Point-1-32, 1, -1.
Point-2-32, 1, 1.
RefPoint-0, 1, -1.
** Constraint: PerConst1-33
*Equation
3
Point-1-33, 1, -1.
Point-2-33, 1, 1.
RefPoint-0, 1, -1.
** Constraint: PerConst1-34
*Equation
3
Point-1-34, 1, -1.
Point-2-34, 1, 1.
RefPoint-0, 1, -1.
** Constraint: PerConst1-35
*Equation
3
Point-1-35, 1, -1.
Point-2-35, 1, 1.
RefPoint-0, 1, -1.
** Constraint: PerConst2-0
*Equation
3
Point-1-0, 2, -1.
Point-2-0, 2, 1.
RefPoint-1, 2, -1.
** Constraint: PerConst2-1
*Equation
3
Point-1-1, 2, -1.
Point-2-1, 2, 1.
RefPoint-1, 2, -1.
** Constraint: PerConst2-2
*Equation
3
Point-1-2, 2, -1.
Point-2-2, 2, 1.
RefPoint-1, 2, -1.
** Constraint: PerConst2-3
*Equation
3
Point-1-3, 2, -1.
Point-2-3, 2, 1.
RefPoint-1, 2, -1.
** Constraint: PerConst2-4
*Equation
3
Point-1-4, 2, -1.
Point-2-4, 2, 1.
RefPoint-1, 2, -1.
** Constraint: PerConst2-5
*Equation
3
Point-1-5, 2, -1.
Point-2-5, 2, 1.
RefPoint-1, 2, -1.
** Constraint: PerConst2-6
*Equation
3
Point-1-6, 2, -1.
Point-2-6, 2, 1.
RefPoint-1, 2, -1.
** Constraint: PerConst2-7
*Equation
3
Point-1-7, 2, -1.
Point-2-7, 2, 1.
RefPoint-1, 2, -1.
** Constraint: PerConst2-8
*Equation
3
Point-1-8, 2, -1.
Point-2-8, 2, 1.
RefPoint-1, 2, -1.
** Constraint: PerConst2-9
*Equation
3
Point-1-9, 2, -1.
Point-2-9, 2, 1.
RefPoint-1, 2, -1.
** Constraint: PerConst2-10
*Equation
3
Point-1-10, 2, -1.
Point-2-10, 2, 1.
RefPoint-1, 2, -1.
** Constraint: PerConst2-11
*Equation
3
Point-1-11, 2, -1.
Point-2-11, 2, 1.
RefPoint-1, 2, -1.
** Constraint: PerConst2-12
*Equation
3
Point-1-12, 2, -1.
Point-2-12, 2, 1.
RefPoint-1, 2, -1.
** Constraint: PerConst2-13
*Equation
3
Point-1-13, 2, -1.
Point-2-13, 2, 1.
RefPoint-0, 2, -1.
** Constraint: PerConst2-14
*Equation
3
Point-1-14, 2, -1.
Point-2-14, 2, 1.
RefPoint-0, 2, -1.
** Constraint: PerConst2-15
*Equation
3
Point-1-15, 2, -1.
Point-2-15, 2, 1.
RefPoint-0, 2, -1.
** Constraint: PerConst2-16
*Equation
3
Point-1-16, 2, -1.
Point-2-16, 2, 1.
RefPoint-0, 2, -1.
** Constraint: PerConst2-17
*Equation
3
Point-1-17, 2, -1.
Point-2-17, 2, 1.
RefPoint-0, 2, -1.
** Constraint: PerConst2-18
*Equation
3
Point-1-18, 2, -1.
Point-2-18, 2, 1.
RefPoint-0, 2, -1.
** Constraint: PerConst2-19
*Equation
3
Point-1-19, 2, -1.
Point-2-19, 2, 1.
RefPoint-0, 2, -1.
** Constraint: PerConst2-20
*Equation
3
Point-1-20, 2, -1.
Point-2-20, 2, 1.
RefPoint-0, 2, -1.
** Constraint: PerConst2-21
*Equation
3
Point-1-21, 2, -1.
Point-2-21, 2, 1.
RefPoint-0, 2, -1.
** Constraint: PerConst2-22
*Equation
3
Point-1-22, 2, -1.
Point-2-22, 2, 1.
RefPoint-0, 2, -1.
** Constraint: PerConst2-23
*Equation
3
Point-1-23, 2, -1.
Point-2-23, 2, 1.
RefPoint-0, 2, -1.
** Constraint: PerConst2-24
*Equation
3
Point-1-24, 2, -1.
Point-2-24, 2, 1.
RefPoint-0, 2, -1.
** Constraint: PerConst2-25
*Equation
3
Point-1-25, 2, -1.
Point-2-25, 2, 1.
RefPoint-0, 2, -1.
** Constraint: PerConst2-26
*Equation
3
Point-1-26, 2, -1.
Point-2-26, 2, 1.
RefPoint-0, 2, -1.
** Constraint: PerConst2-27
*Equation
3
Point-1-27, 2, -1.
Point-2-27, 2, 1.
RefPoint-0, 2, -1.
** Constraint: PerConst2-28
*Equation
3
Point-1-28, 2, -1.
Point-2-28, 2, 1.
RefPoint-0, 2, -1.
** Constraint: PerConst2-29
*Equation
3
Point-1-29, 2, -1.
Point-2-29, 2, 1.
RefPoint-0, 2, -1.
** Constraint: PerConst2-30
*Equation
3
Point-1-30, 2, -1.
Point-2-30, 2, 1.
RefPoint-0, 2, -1.
** Constraint: PerConst2-31
*Equation
3
Point-1-31, 2, -1.
Point-2-31, 2, 1.
RefPoint-0, 2, -1.
** Constraint: PerConst2-32
*Equation
3
Point-1-32, 2, -1.
Point-2-32, 2, 1.
RefPoint-0, 2, -1.
** Constraint: PerConst2-33
*Equation
3
Point-1-33, 2, -1.
Point-2-33, 2, 1.
RefPoint-0, 2, -1.
** Constraint: PerConst2-34
*Equation
3
Point-1-34, 2, -1.
Point-2-34, 2, 1.
RefPoint-0, 2, -1.
** Constraint: PerConst2-35
*Equation
3
Point-1-35, 2, -1.
Point-2-35, 2, 1.
RefPoint-0, 2, -1.
** Constraint: PerConst3-0
*Equation
3
Point-1-0, 3, -1.
Point-2-0, 3, 1.
RefPoint-1, 3, 1.77782
** Constraint: PerConst3-1
*Equation
3
Point-1-1, 3, -1.
Point-2-1, 3, 1.
RefPoint-1, 3, 1.87046
** Constraint: PerConst3-2
*Equation
3
Point-1-2, 3, -1.
Point-2-2, 3, 1.
RefPoint-1, 3, 1.96314
** Constraint: PerConst3-3
*Equation
3
Point-1-3, 3, -1.
Point-2-3, 3, 1.
RefPoint-1, 3, 2.04545
** Constraint: PerConst3-4
*Equation
3
Point-1-4, 3, -1.
Point-2-4, 3, 1.
RefPoint-1, 3, 2.1277
** Constraint: PerConst3-5
*Equation
3
Point-1-5, 3, -1.
Point-2-5, 3, 1.
RefPoint-1, 3, 2.14816
** Constraint: PerConst3-6
*Equation
3
Point-1-6, 3, -1.
Point-2-6, 3, 1.
RefPoint-1, 3, 2.24062
** Constraint: PerConst3-7
*Equation
3
Point-1-7, 3, -1.
Point-2-7, 3, 1.
RefPoint-1, 3, 2.29219
** Constraint: PerConst3-8
*Equation
3
Point-1-8, 3, -1.
Point-2-8, 3, 1.
RefPoint-1, 3, 2.33302
** Constraint: PerConst3-9
*Equation
3
Point-1-9, 3, -1.
Point-2-9, 3, 1.
RefPoint-1, 3, 2.42534
** Constraint: PerConst3-10
*Equation
3
Point-1-10, 3, -1.
Point-2-10, 3, 1.
RefPoint-1, 3, 2.45669
** Constraint: PerConst3-11
*Equation
3
Point-1-11, 3, -1.
Point-2-11, 3, 1.
RefPoint-1, 3, 2.51755
** Constraint: PerConst3-12
*Equation
3
Point-1-12, 3, -1.
Point-2-12, 3, 1.
RefPoint-1, 3, 2.60964
** Constraint: PerConst3-13
*Equation
3
Point-1-13, 3, -1.
Point-2-13, 3, 1.
RefPoint-0, 3, 1.1305
** Constraint: PerConst3-14
*Equation
3
Point-1-14, 3, -1.
Point-2-14, 3, 1.
RefPoint-0, 3, 1.29268
** Constraint: PerConst3-15
*Equation
3
Point-1-15, 3, -1.
Point-2-15, 3, 1.
RefPoint-0, 3, 1.45486
** Constraint: PerConst3-16
*Equation
3
Point-1-16, 3, -1.
Point-2-16, 3, 1.
RefPoint-0, 3, 1.61704
** Constraint: PerConst3-17
*Equation
3
Point-1-17, 3, -1.
Point-2-17, 3, 1.
RefPoint-0, 3, 1.77921
** Constraint: PerConst3-18
*Equation
3
Point-1-18, 3, -1.
Point-2-18, 3, 1.
RefPoint-0, 3, 1.94118
** Constraint: PerConst3-19
*Equation
3
Point-1-19, 3, -1.
Point-2-19, 3, 1.
RefPoint-0, 3, 2.10118
** Constraint: PerConst3-20
*Equation
3
Point-1-20, 3, -1.
Point-2-20, 3, 1.
RefPoint-0, 3, 2.2605
** Constraint: PerConst3-21
*Equation
3
Point-1-21, 3, -1.
Point-2-21, 3, 1.
RefPoint-0, 3, 2.42793
** Constraint: PerConst3-22
*Equation
3
Point-1-22, 3, -1.
Point-2-22, 3, 1.
RefPoint-0, 3, 2.59011
** Constraint: PerConst3-23
*Equation
3
Point-1-23, 3, -1.
Point-2-23, 3, 1.
RefPoint-0, 3, 2.75229
** Constraint: PerConst3-24
*Equation
3
Point-1-24, 3, -1.
Point-2-24, 3, 1.
RefPoint-0, 3, 2.91446
** Constraint: PerConst3-25
*Equation
3
Point-1-25, 3, -1.
Point-2-25, 3, 1.
RefPoint-0, 3, 3.07664
** Constraint: PerConst3-26
*Equation
3
Point-1-26, 3, -1.
Point-2-26, 3, 1.
RefPoint-0, 3, 3.23882
** Constraint: PerConst3-27
*Equation
3
Point-1-27, 3, -1.
Point-2-27, 3, 1.
RefPoint-0, 3, 3.40099
** Constraint: PerConst3-28
*Equation
3
Point-1-28, 3, -1.
Point-2-28, 3, 1.
RefPoint-0, 3, 4.52091
** Constraint: PerConst3-29
*Equation
3
Point-1-29, 3, -1.
Point-2-29, 3, 1.
RefPoint-0, 3, 4.69843
** Constraint: PerConst3-30
*Equation
3
Point-1-30, 3, -1.
Point-2-30, 3, 1.
RefPoint-0, 3, 4.86061
** Constraint: PerConst3-31
*Equation
3
Point-1-31, 3, -1.
Point-2-31, 3, 1.
RefPoint-0, 3, 5.02123
** Constraint: PerConst3-32
*Equation
3
Point-1-32, 3, -1.
Point-2-32, 3, 1.
RefPoint-0, 3, 5.18177
** Constraint: PerConst3-33
*Equation
3
Point-1-33, 3, -1.
Point-2-33, 3, 1.
RefPoint-0, 3, 5.34218
** Constraint: PerConst3-34
*Equation
3
Point-1-34, 3, -1.
Point-2-34, 3, 1.
RefPoint-0, 3, 5.50218
** Constraint: PerConst3-35
*Equation
3
Point-1-35, 3, -1.
Point-2-35, 3, 1.
RefPoint-0, 3, 5.6615
** Constraint: PerConst4-0
*Equation
3
Point-1-0, 4, -1.
Point-2-0, 4, 1.
RefPoint-1, 4, 1.
** Constraint: PerConst4-1
*Equation
3
Point-1-1, 4, -1.
Point-2-1, 4, 1.
RefPoint-1, 4, 1.
** Constraint: PerConst4-2
*Equation
3
Point-1-2, 4, -1.
Point-2-2, 4, 1.
RefPoint-1, 4, 1.
** Constraint: PerConst4-3
*Equation
3
Point-1-3, 4, -1.
Point-2-3, 4, 1.
RefPoint-1, 4, 1.
** Constraint: PerConst4-4
*Equation
3
Point-1-4, 4, -1.
Point-2-4, 4, 1.
RefPoint-1, 4, 1.
** Constraint: PerConst4-5
*Equation
3
Point-1-5, 4, -1.
Point-2-5, 4, 1.
RefPoint-1, 4, 1.
** Constraint: PerConst4-6
*Equation
3
Point-1-6, 4, -1.
Point-2-6, 4, 1.
RefPoint-1, 4, 1.
** Constraint: PerConst4-7
*Equation
3
Point-1-7, 4, -1.
Point-2-7, 4, 1.
RefPoint-1, 4, 1.
** Constraint: PerConst4-8
*Equation
3
Point-1-8, 4, -1.
Point-2-8, 4, 1.
RefPoint-1, 4, 1.
** Constraint: PerConst4-9
*Equation
3
Point-1-9, 4, -1.
Point-2-9, 4, 1.
RefPoint-1, 4, 1.
** Constraint: PerConst4-10
*Equation
3
Point-1-10, 4, -1.
Point-2-10, 4, 1.
RefPoint-1, 4, 1.
** Constraint: PerConst4-11
*Equation
3
Point-1-11, 4, -1.
Point-2-11, 4, 1.
RefPoint-1, 4, 1.
** Constraint: PerConst4-12
*Equation
3
Point-1-12, 4, -1.
Point-2-12, 4, 1.
RefPoint-1, 4, 1.
** Constraint: PerConst4-13
*Equation
3
Point-1-13, 4, -1.
Point-2-13, 4, 1.
RefPoint-0, 4, 1.
** Constraint: PerConst4-14
*Equation
3
Point-1-14, 4, -1.
Point-2-14, 4, 1.
RefPoint-0, 4, 1.
** Constraint: PerConst4-15
*Equation
3
Point-1-15, 4, -1.
Point-2-15, 4, 1.
RefPoint-0, 4, 1.
** Constraint: PerConst4-16
*Equation
3
Point-1-16, 4, -1.
Point-2-16, 4, 1.
RefPoint-0, 4, 1.
** Constraint: PerConst4-17
*Equation
3
Point-1-17, 4, -1.
Point-2-17, 4, 1.
RefPoint-0, 4, 1.
** Constraint: PerConst4-18
*Equation
3
Point-1-18, 4, -1.
Point-2-18, 4, 1.
RefPoint-0, 4, 1.
** Constraint: PerConst4-19
*Equation
3
Point-1-19, 4, -1.
Point-2-19, 4, 1.
RefPoint-0, 4, 1.
** Constraint: PerConst4-20
*Equation
3
Point-1-20, 4, -1.
Point-2-20, 4, 1.
RefPoint-0, 4, 1.
** Constraint: PerConst4-21
*Equation
3
Point-1-21, 4, -1.
Point-2-21, 4, 1.
RefPoint-0, 4, 1.
** Constraint: PerConst4-22
*Equation
3
Point-1-22, 4, -1.
Point-2-22, 4, 1.
RefPoint-0, 4, 1.
** Constraint: PerConst4-23
*Equation
3
Point-1-23, 4, -1.
Point-2-23, 4, 1.
RefPoint-0, 4, 1.
** Constraint: PerConst4-24
*Equation
3
Point-1-24, 4, -1.
Point-2-24, 4, 1.
RefPoint-0, 4, 1.
** Constraint: PerConst4-25
*Equation
3
Point-1-25, 4, -1.
Point-2-25, 4, 1.
RefPoint-0, 4, 1.
** Constraint: PerConst4-26
*Equation
3
Point-1-26, 4, -1.
Point-2-26, 4, 1.
RefPoint-0, 4, 1.
** Constraint: PerConst4-27
*Equation
3
Point-1-27, 4, -1.
Point-2-27, 4, 1.
RefPoint-0, 4, 1.
** Constraint: PerConst4-28
*Equation
3
Point-1-28, 4, -1.
Point-2-28, 4, 1.
RefPoint-0, 4, 1.
** Constraint: PerConst4-29
*Equation
3
Point-1-29, 4, -1.
Point-2-29, 4, 1.
RefPoint-0, 4, 1.
** Constraint: PerConst4-30
*Equation
3
Point-1-30, 4, -1.
Point-2-30, 4, 1.
RefPoint-0, 4, 1.
** Constraint: PerConst4-31
*Equation
3
Point-1-31, 4, -1.
Point-2-31, 4, 1.
RefPoint-0, 4, 1.
** Constraint: PerConst4-32
*Equation
3
Point-1-32, 4, -1.
Point-2-32, 4, 1.
RefPoint-0, 4, 1.
** Constraint: PerConst4-33
*Equation
3
Point-1-33, 4, -1.
Point-2-33, 4, 1.
RefPoint-0, 4, 1.
** Constraint: PerConst4-34
*Equation
3
Point-1-34, 4, -1.
Point-2-34, 4, 1.
RefPoint-0, 4, 1.
** Constraint: PerConst4-35
*Equation
3
Point-1-35, 4, -1.
Point-2-35, 4, 1.
RefPoint-0, 4, 1.
** Constraint: PerConst5-0
*Equation
3
Point-1-0, 5, -1.
Point-2-0, 5, 1.
RefPoint-1, 5, -1.
** Constraint: PerConst5-1
*Equation
3
Point-1-1, 5, -1.
Point-2-1, 5, 1.
RefPoint-1, 5, -1.
** Constraint: PerConst5-2
*Equation
3
Point-1-2, 5, -1.
Point-2-2, 5, 1.
RefPoint-1, 5, -1.
** Constraint: PerConst5-3
*Equation
3
Point-1-3, 5, -1.
Point-2-3, 5, 1.
RefPoint-1, 5, -1.
** Constraint: PerConst5-4
*Equation
3
Point-1-4, 5, -1.
Point-2-4, 5, 1.
RefPoint-1, 5, -1.
** Constraint: PerConst5-5
*Equation
3
Point-1-5, 5, -1.
Point-2-5, 5, 1.
RefPoint-1, 5, -1.
** Constraint: PerConst5-6
*Equation
3
Point-1-6, 5, -1.
Point-2-6, 5, 1.
RefPoint-1, 5, -1.
** Constraint: PerConst5-7
*Equation
3
Point-1-7, 5, -1.
Point-2-7, 5, 1.
RefPoint-1, 5, -1.
** Constraint: PerConst5-8
*Equation
3
Point-1-8, 5, -1.
Point-2-8, 5, 1.
RefPoint-1, 5, -1.
** Constraint: PerConst5-9
*Equation
3
Point-1-9, 5, -1.
Point-2-9, 5, 1.
RefPoint-1, 5, -1.
** Constraint: PerConst5-10
*Equation
3
Point-1-10, 5, -1.
Point-2-10, 5, 1.
RefPoint-1, 5, -1.
** Constraint: PerConst5-11
*Equation
3
Point-1-11, 5, -1.
Point-2-11, 5, 1.
RefPoint-1, 5, -1.
** Constraint: PerConst5-12
*Equation
3
Point-1-12, 5, -1.
Point-2-12, 5, 1.
RefPoint-1, 5, -1.
** Constraint: PerConst5-13
*Equation
3
Point-1-13, 5, -1.
Point-2-13, 5, 1.
RefPoint-0, 5, -1.
** Constraint: PerConst5-14
*Equation
3
Point-1-14, 5, -1.
Point-2-14, 5, 1.
RefPoint-0, 5, -1.
** Constraint: PerConst5-15
*Equation
3
Point-1-15, 5, -1.
Point-2-15, 5, 1.
RefPoint-0, 5, -1.
** Constraint: PerConst5-16
*Equation
3
Point-1-16, 5, -1.
Point-2-16, 5, 1.
RefPoint-0, 5, -1.
** Constraint: PerConst5-17
*Equation
3
Point-1-17, 5, -1.
Point-2-17, 5, 1.
RefPoint-0, 5, -1.
** Constraint: PerConst5-18
*Equation
3
Point-1-18, 5, -1.
Point-2-18, 5, 1.
RefPoint-0, 5, -1.
** Constraint: PerConst5-19
*Equation
3
Point-1-19, 5, -1.
Point-2-19, 5, 1.
RefPoint-0, 5, -1.
** Constraint: PerConst5-20
*Equation
3
Point-1-20, 5, -1.
Point-2-20, 5, 1.
RefPoint-0, 5, -1.
** Constraint: PerConst5-21
*Equation
3
Point-1-21, 5, -1.
Point-2-21, 5, 1.
RefPoint-0, 5, -1.
** Constraint: PerConst5-22
*Equation
3
Point-1-22, 5, -1.
Point-2-22, 5, 1.
RefPoint-0, 5, -1.
** Constraint: PerConst5-23
*Equation
3
Point-1-23, 5, -1.
Point-2-23, 5, 1.
RefPoint-0, 5, -1.
** Constraint: PerConst5-24
*Equation
3
Point-1-24, 5, -1.
Point-2-24, 5, 1.
RefPoint-0, 5, -1.
** Constraint: PerConst5-25
*Equation
3
Point-1-25, 5, -1.
Point-2-25, 5, 1.
RefPoint-0, 5, -1.
** Constraint: PerConst5-26
*Equation
3
Point-1-26, 5, -1.
Point-2-26, 5, 1.
RefPoint-0, 5, -1.
** Constraint: PerConst5-27
*Equation
3
Point-1-27, 5, -1.
Point-2-27, 5, 1.
RefPoint-0, 5, -1.
** Constraint: PerConst5-28
*Equation
3
Point-1-28, 5, -1.
Point-2-28, 5, 1.
RefPoint-0, 5, -1.
** Constraint: PerConst5-29
*Equation
3
Point-1-29, 5, -1.
Point-2-29, 5, 1.
RefPoint-0, 5, -1.
** Constraint: PerConst5-30
*Equation
3
Point-1-30, 5, -1.
Point-2-30, 5, 1.
RefPoint-0, 5, -1.
** Constraint: PerConst5-31
*Equation
3
Point-1-31, 5, -1.
Point-2-31, 5, 1.
RefPoint-0, 5, -1.
** Constraint: PerConst5-32
*Equation
3
Point-1-32, 5, -1.
Point-2-32, 5, 1.
RefPoint-0, 5, -1.
** Constraint: PerConst5-33
*Equation
3
Point-1-33, 5, -1.
Point-2-33, 5, 1.
RefPoint-0, 5, -1.
** Constraint: PerConst5-34
*Equation
3
Point-1-34, 5, -1.
Point-2-34, 5, 1.
RefPoint-0, 5, -1.
** Constraint: PerConst5-35
*Equation
3
Point-1-35, 5, -1.
Point-2-35, 5, 1.
RefPoint-0, 5, -1.
** Constraint: PerConst6-0
*Equation
3
Point-1-0, 6, -1.
Point-2-0, 6, 1.
RefPoint-1, 6, 0.
** Constraint: PerConst6-1
*Equation
3
Point-1-1, 6, -1.
Point-2-1, 6, 1.
RefPoint-1, 6, 0.
** Constraint: PerConst6-2
*Equation
3
Point-1-2, 6, -1.
Point-2-2, 6, 1.
RefPoint-1, 6, 0.
** Constraint: PerConst6-3
*Equation
3
Point-1-3, 6, -1.
Point-2-3, 6, 1.
RefPoint-1, 6, 0.
** Constraint: PerConst6-4
*Equation
3
Point-1-4, 6, -1.
Point-2-4, 6, 1.
RefPoint-1, 6, 0.
** Constraint: PerConst6-5
*Equation
3
Point-1-5, 6, -1.
Point-2-5, 6, 1.
RefPoint-1, 6, 0.
** Constraint: PerConst6-6
*Equation
3
Point-1-6, 6, -1.
Point-2-6, 6, 1.
RefPoint-1, 6, 0.
** Constraint: PerConst6-7
*Equation
3
Point-1-7, 6, -1.
Point-2-7, 6, 1.
RefPoint-1, 6, 0.
** Constraint: PerConst6-8
*Equation
3
Point-1-8, 6, -1.
Point-2-8, 6, 1.
RefPoint-1, 6, 0.
** Constraint: PerConst6-9
*Equation
3
Point-1-9, 6, -1.
Point-2-9, 6, 1.
RefPoint-1, 6, 0.
** Constraint: PerConst6-10
*Equation
3
Point-1-10, 6, -1.
Point-2-10, 6, 1.
RefPoint-1, 6, 0.
** Constraint: PerConst6-11
*Equation
3
Point-1-11, 6, -1.
Point-2-11, 6, 1.
RefPoint-1, 6, 0.
** Constraint: PerConst6-12
*Equation
3
Point-1-12, 6, -1.
Point-2-12, 6, 1.
RefPoint-1, 6, 0.
** Constraint: PerConst6-13
*Equation
3
Point-1-13, 6, -1.
Point-2-13, 6, 1.
RefPoint-0, 6, 0.
** Constraint: PerConst6-14
*Equation
3
Point-1-14, 6, -1.
Point-2-14, 6, 1.
RefPoint-0, 6, 0.
** Constraint: PerConst6-15
*Equation
3
Point-1-15, 6, -1.
Point-2-15, 6, 1.
RefPoint-0, 6, 0.
** Constraint: PerConst6-16
*Equation
3
Point-1-16, 6, -1.
Point-2-16, 6, 1.
RefPoint-0, 6, 0.
** Constraint: PerConst6-17
*Equation
3
Point-1-17, 6, -1.
Point-2-17, 6, 1.
RefPoint-0, 6, 0.
** Constraint: PerConst6-18
*Equation
3
Point-1-18, 6, -1.
Point-2-18, 6, 1.
RefPoint-0, 6, 0.
** Constraint: PerConst6-19
*Equation
3
Point-1-19, 6, -1.
Point-2-19, 6, 1.
RefPoint-0, 6, 0.
** Constraint: PerConst6-20
*Equation
3
Point-1-20, 6, -1.
Point-2-20, 6, 1.
RefPoint-0, 6, 0.
** Constraint: PerConst6-21
*Equation
3
Point-1-21, 6, -1.
Point-2-21, 6, 1.
RefPoint-0, 6, 0.
** Constraint: PerConst6-22
*Equation
3
Point-1-22, 6, -1.
Point-2-22, 6, 1.
RefPoint-0, 6, 0.
** Constraint: PerConst6-23
*Equation
3
Point-1-23, 6, -1.
Point-2-23, 6, 1.
RefPoint-0, 6, 0.
** Constraint: PerConst6-24
*Equation
3
Point-1-24, 6, -1.
Point-2-24, 6, 1.
RefPoint-0, 6, 0.
** Constraint: PerConst6-25
*Equation
3
Point-1-25, 6, -1.
Point-2-25, 6, 1.
RefPoint-0, 6, 0.
** Constraint: PerConst6-26
*Equation
3
Point-1-26, 6, -1.
Point-2-26, 6, 1.
RefPoint-0, 6, 0.
** Constraint: PerConst6-27
*Equation
3
Point-1-27, 6, -1.
Point-2-27, 6, 1.
RefPoint-0, 6, 0.
** Constraint: PerConst6-28
*Equation
3
Point-1-28, 6, -1.
Point-2-28, 6, 1.
RefPoint-0, 6, 0.
** Constraint: PerConst6-29
*Equation
3
Point-1-29, 6, -1.
Point-2-29, 6, 1.
RefPoint-0, 6, 0.
** Constraint: PerConst6-30
*Equation
3
Point-1-30, 6, -1.
Point-2-30, 6, 1.
RefPoint-0, 6, 0.
** Constraint: PerConst6-31
*Equation
3
Point-1-31, 6, -1.
Point-2-31, 6, 1.
RefPoint-0, 6, 0.
** Constraint: PerConst6-32
*Equation
3
Point-1-32, 6, -1.
Point-2-32, 6, 1.
RefPoint-0, 6, 0.
** Constraint: PerConst6-33
*Equation
3
Point-1-33, 6, -1.
Point-2-33, 6, 1.
RefPoint-0, 6, 0.
** Constraint: PerConst6-34
*Equation
3
Point-1-34, 6, -1.
Point-2-34, 6, 1.
RefPoint-0, 6, 0.
** Constraint: PerConst6-35
*Equation
3
Point-1-35, 6, -1.
Point-2-35, 6, 1.
RefPoint-0, 6, 0.
** Constraint: RF1001
*MPC
BEAM, _PickedSet1988, RF1001
** Constraint: RF1002
*MPC
BEAM, _PickedSet1994, RF1002
** Constraint: RF1003
*MPC
BEAM, _PickedSet1998, RF1003
** Constraint: RF1004
*MPC
BEAM, _PickedSet2004, RF1004
** Constraint: RF1005
*MPC
BEAM, _PickedSet2010, RF1005
** Constraint: RF1006
*MPC
BEAM, _PickedSet2014, RF1006
** Constraint: RF1007
*MPC
BEAM, _PickedSet2020, RF1007
** Constraint: RF1008
*MPC
BEAM, _PickedSet2026, RF1008
** Constraint: RF1009
*MPC
BEAM, _PickedSet2030, RF1009
** Constraint: RF1010
*MPC
BEAM, _PickedSet2038, RF1010
** Constraint: RF1011
*MPC
BEAM, _PickedSet2046, RF1011
** Constraint: RF1012
*MPC
BEAM, _PickedSet2054, RF1012
** Constraint: RF1013
*MPC
BEAM, _PickedSet2058, RF1013
** Constraint: RF1014
*MPC
BEAM, _PickedSet2064, RF1014
** Constraint: RF1015
*MPC
BEAM, _PickedSet2070, RF1015
** Constraint: RF1016
*MPC
BEAM, _PickedSet2074, RF1016
** Constraint: RF1017
*MPC
BEAM, _PickedSet2080, RF1017
** Constraint: RF1018
*MPC
BEAM, _PickedSet2086, RF1018
** Constraint: RF1019
*MPC
BEAM, _PickedSet2090, RF1019
** Constraint: RF1020
*MPC
BEAM, _PickedSet2096, RF1020
** Constraint: RF1021
*MPC
BEAM, _PickedSet2102, RF1021
** Constraint: RF2001
*MPC
BEAM, _PickedSet2108, RF2001
** Constraint: RF2002
*MPC
BEAM, _PickedSet2114, RF2002
** Constraint: RF2003
*MPC
BEAM, _PickedSet2118, RF2003
** Constraint: RF2004
*MPC
BEAM, _PickedSet2124, RF2004
** Constraint: RF2005
*MPC
BEAM, _PickedSet2130, RF2005
** Constraint: RF2006
*MPC
BEAM, _PickedSet2134, RF2006
** Constraint: RF2007
*MPC
BEAM, _PickedSet2140, RF2007
** Constraint: RF2008
*MPC
BEAM, _PickedSet2146, RF2008
** Constraint: RF2009
*MPC
BEAM, _PickedSet2150, RF2009
** Constraint: RF2010
*MPC
BEAM, _PickedSet2158, RF2010
** Constraint: RF2011
*MPC
BEAM, _PickedSet2166, RF2011
** Constraint: RF2012
*MPC
BEAM, _PickedSet2174, RF2012
** Constraint: RF2013
*MPC
BEAM, _PickedSet2178, RF2013
** Constraint: RF2014
*MPC
BEAM, _PickedSet2184, RF2014
** Constraint: RF2015
*MPC
BEAM, _PickedSet2190, RF2015
** Constraint: RF2016
*MPC
BEAM, _PickedSet2194, RF2016
** Constraint: RF2017
*MPC
BEAM, _PickedSet2200, RF2017
** Constraint: RF2018
*MPC
BEAM, _PickedSet2206, RF2018
** Constraint: RF2019
*MPC
BEAM, _PickedSet2210, RF2019
** Constraint: RF2020
*MPC
BEAM, _PickedSet2216, RF2020
** Constraint: RF2021
*MPC
BEAM, _PickedSet2222, RF2021
** Constraint: RF3001
*MPC
BEAM, _PickedSet2228, RF3001
** Constraint: RF3002
*MPC
BEAM, _PickedSet2234, RF3002
** Constraint: RF3003
*MPC
BEAM, _PickedSet2240, RF3003
** Constraint: RF3004
*MPC
BEAM, _PickedSet2246, RF3004
** Constraint: RF3005
*MPC
BEAM, _PickedSet2252, RF3005
** Constraint: RF3006
*MPC
BEAM, _PickedSet2258, RF3006
** Constraint: RF3007
*MPC
BEAM, _PickedSet2264, RF3007
** Constraint: RF3008
*MPC
BEAM, _PickedSet2271, RF3008
** Constraint: RF3009
*MPC
BEAM, _PickedSet2279, RF3009
** Constraint: RF3010
*MPC
BEAM, _PickedSet2287, RF3010
** Constraint: RF3011
*MPC
BEAM, _PickedSet2295, RF3011
** Constraint: RF3012
*MPC
BEAM, _PickedSet2303, RF3012
** Constraint: RF3013
*MPC
BEAM, _PickedSet2311, RF3013
** Constraint: RF3014
*MPC
BEAM, _PickedSet2319, RF3014
** Constraint: RF3015
*MPC
BEAM, _PickedSet2327, RF3015
** Constraint: RF3016
*MPC
BEAM, _PickedSet2335, RF3016
** Constraint: RF3017
*MPC
BEAM, _PickedSet2343, RF3017
** Constraint: RF3018
*MPC
BEAM, _PickedSet2351, RF3018
** Constraint: RF3019
*MPC
BEAM, _PickedSet2359, RF3019
** Constraint: RF3020
*MPC
BEAM, _PickedSet2367, RF3020
** Constraint: RF3021
*MPC
BEAM, _PickedSet2375, RF3021
** Constraint: RF3022
*MPC
BEAM, _PickedSet2382, RF3022
** Constraint: RF3023
*MPC
BEAM, _PickedSet2388, RF3023
** Constraint: RF3024
*MPC
BEAM, _PickedSet2394, RF3024
** Constraint: RF3025
*MPC
BEAM, _PickedSet2400, RF3025
** Constraint: RF3026
*MPC
BEAM, _PickedSet2406, RF3026
** Constraint: RF3027
*MPC
BEAM, _PickedSet2412, RF3027
** Constraint: RF3028
*MPC
BEAM, _PickedSet2418, RF3028
** Constraint: RF3029
*MPC
BEAM, _PickedSet2424, RF3029
** Constraint: RF4001
*MPC
BEAM, _PickedSet2430, RF4001
** Constraint: RF4002
*MPC
BEAM, _PickedSet2436, RF4002
** Constraint: RF4003
*MPC
BEAM, _PickedSet2442, RF4003
** Constraint: RF4004
*MPC
BEAM, _PickedSet2448, RF4004
** Constraint: RF4005
*MPC
BEAM, _PickedSet2454, RF4005
** Constraint: RF4006
*MPC
BEAM, _PickedSet2460, RF4006
** Constraint: RF4007
*MPC
BEAM, _PickedSet2466, RF4007
** Constraint: RF4008
*MPC
BEAM, _PickedSet2473, RF4008
** Constraint: RF4009
*MPC
BEAM, _PickedSet2481, RF4009
** Constraint: RF4010
*MPC
BEAM, _PickedSet2489, RF4010
** Constraint: RF4011
*MPC
BEAM, _PickedSet2497, RF4011
** Constraint: RF4012
*MPC
BEAM, _PickedSet2505, RF4012
** Constraint: RF4013
*MPC
BEAM, _PickedSet2513, RF4013
** Constraint: RF4014
*MPC
BEAM, _PickedSet2521, RF4014
** Constraint: RF4015
*MPC
BEAM, _PickedSet2529, RF4015
** Constraint: RF4016
*MPC
BEAM, _PickedSet2537, RF4016
** Constraint: RF4017
*MPC
BEAM, _PickedSet2545, RF4017
** Constraint: RF4018
*MPC
BEAM, _PickedSet2553, RF4018
** Constraint: RF4019
*MPC
BEAM, _PickedSet2561, RF4019
** Constraint: RF4020
*MPC
BEAM, _PickedSet2569, RF4020
** Constraint: RF4021
*MPC
BEAM, _PickedSet2577, RF4021
** Constraint: RF4022
*MPC
BEAM, _PickedSet2584, RF4022
** Constraint: RF4023
*MPC
BEAM, _PickedSet2590, RF4023
** Constraint: RF4024
*MPC
BEAM, _PickedSet2596, RF4024
** Constraint: RF4025
*MPC
BEAM, _PickedSet2602, RF4025
** Constraint: RF4026
*MPC
BEAM, _PickedSet2608, RF4026
** Constraint: RF4027
*MPC
BEAM, _PickedSet2614, RF4027
** Constraint: RF4028
*MPC
BEAM, _PickedSet2620, RF4028
** Constraint: RF4029
*MPC
BEAM, _PickedSet2626, RF4029
*End Assembly
*Distribution Table, name=Ori-5-DiscOrient_Table
coord3D, coord3D
*Distribution Table, name=Ori-3-DiscOrient_Table
coord3D, coord3D
*Distribution Table, name=Ori-1-DiscOrient_Table
coord3D, coord3D
*Distribution Table, name=Ori-2-DiscOrient_Table
coord3D, coord3D
*Distribution Table, name=Ori-4-DiscOrient_Table
coord3D, coord3D
*Distribution Table, name=Ori-6-DiscOrient_Table
coord3D, coord3D
** 
** MATERIALS
** 
*Material, name=MAT0
*Density
 1.301e-09,
*Elastic
4670., 0.37
*Material, name=MAT1
*Density
 1.76e-09,
*Elastic, type=ENGINEERING CONSTANTS
153085.,  12873.,  12873.,    0.26,    0.26, 0.46818,   4408.,   4408.
   4384.,
** ----------------------------------------------------------------
** 
** STEP: Step-1
** 
*Step, name=Step-1, nlgeom=NO
*Static
1., 1., 1e-05, 1.
** 
** BOUNDARY CONDITIONS
** 
** Name: BC-1 Type: Displacement/Rotation
*Boundary
RefPoint-0, 1, 1, 0.039264
RefPoint-0, 2, 2
RefPoint-0, 3, 3
RefPoint-0, 4, 4
RefPoint-0, 5, 5
RefPoint-0, 6, 6
** Name: BC-2 Type: Displacement/Rotation
*Boundary
RefPoint-1, 1, 1
RefPoint-1, 2, 2
RefPoint-1, 3, 3
RefPoint-1, 4, 4
RefPoint-1, 5, 5
RefPoint-1, 6, 6
** 
** OUTPUT REQUESTS
** 
*Restart, write, frequency=0
** 
** FIELD OUTPUT: F-Output-1
** 
*Output, field, variable=PRESELECT
** 
** HISTORY OUTPUT: H-Output-1
** 
*Output, history, variable=PRESELECT
*End Step
